* HSPICE Library of MOS models for HP 0.8um 
* Stefanos 3/93
*
* Setting A(S|D) and P(S|D) is necessary !! 
*
* Library	Contents
* ------------------------------------------------------------------------
* typical	Centerline N
* fast		High IDS N
* slow		Low IDS N


* Midpoint of the fab distribution; centerline or "typical" process
.LIB typical
* ncondition typical
*PROCESS=hp	
*RUN=n31r 
*WAFER=1
*Gate-oxide thickness= 221.0 angstroms 
*Geometries (W-drawn/L-drawn, units are um/um) of transistors measured were: 
* 1.5/1.0, 3.0/1.0, 9.0/1.0, 3.0/3.0, 3.0/9.0 
*Bias range to perform the extraction (Vdd)=5 volts 
*DATE=04-06-93
*
*NMOS PARAMETERS
*
.MODEL nmos NMOS LEVEL=13 VFB0=
+ -9.41688E-01, 2.18185E-01,-2.35946E-01
+  7.82777E-01, 0.00000E+00, 0.00000E+00
+  1.13589E+00,-2.85130E-01, 2.16800E-01
+  1.51198E-01,-1.71560E-02,-3.15808E-02
+ -5.72958E-03, 3.27444E-02,-2.10890E-02
+  5.28814E+02,4.79779E-001,4.51350E-001
+  7.41977E-02, 7.57276E-02,-4.11109E-02
+  3.75169E-03, 8.94311E-02, 5.65360E-03
+  8.72279E+00,-4.00886E+00, 3.87721E-01
+ -1.95156E-03,-3.93642E-03, 2.65433E-03
+  1.08599E-04,-1.84486E-03, 1.07271E-03
+  1.45390E-03,-1.48054E-03,-2.97199E-03
+  2.26248E-03, 2.93742E-03,-4.09948E-03
+  5.87584E+02,-1.19375E+01, 8.49054E+01
+ -1.05839E+00, 8.81114E+00,-7.48852E+00
+ -5.76931E-02, 3.45437E+00, 7.94935E+00
+ -8.23857E-03, 5.81108E-03, 3.18567E-03
+ 2.03000E-002, 2.70000E+01, 5.00000E+00                                        
+ 6.12098E-010,6.12098E-010,3.73050E-010
+ 1.00000E+000,0.00000E+000,0.00000E+000
+ 1.00000E+000,0.00000E+000,0.00000E+000
+ 0.00000E+000,0.00000E+000,0.00000E+000
+ 0.00000E+000,0.00000E+000,0.00000E+000
+ 1.99,    1.196200e-04,    4.693500e-10,    0,    0.8
+ 0.8,    0.439755,    0.123994,    0,    0
*
* Gate Oxide Thickness is 203 Angstroms
*
*
*
*N+ diffusion:: 
*
.MODEL PC1_DU1 R
+ RSH=1.99 COX=0.00012 CAPSW=4.69e-10 W=0 DW=0
*
.ENDL typical

.LIB fast
*PROCESS=hp		
* ncondition fast
*RUN=n29z
*WAFER=2
*Gate-oxide thickness= 176.0 angstroms 
*Geometries (W-drawn/L-drawn, units are um/um) of transistors measured were: 
* 1.5/1.0, 3.0/1.0, 9.0/1.0, 3.0/3.0, 3.0/9.0 
*Bias range to perform the extraction (Vdd)=5 volts 
*DATE=02-11-93
*
*NMOS PARAMETERS
*
.MODEL nmos NMOS LEVEL=13 VFB0=
+ -7.58998E-01, 2.14897E-02, 1.23152E-01
+  7.42201E-01, 0.00000E+00,-2.83200E-24
+  8.90900E-01,-3.11958E-02,-3.54696E-01
+  7.88072E-02, 5.78136E-02,-1.73583E-01
+ -2.99119E-03, 2.33191E-02,-1.70910E-02
+  5.54302E+02,4.81357E-001,4.75992E-001
+  1.01538E-01, 9.08377E-02,-9.19324E-02
+ -9.93277E-03, 8.94698E-02, 8.29828E-03
+  8.86808E+00,-4.74779E+00,-4.92191E-01
+ -6.74775E-04,-4.16015E-03, 2.76833E-03
+  3.57104E-04,-1.45437E-03, 8.70530E-04
+ -2.91818E-04,-1.71502E-03,-1.70371E-03
+  2.87472E-04, 3.81244E-03,-5.70459E-03
+  5.96706E+02, 3.38649E+01,-1.06304E+01
+  6.06875E-01, 8.52691E+00,-1.53784E+01
+  1.06405E+00, 7.52749E+00,-1.59711E+00
+ -1.46476E-04, 4.02165E-03,-2.18420E-03
+ 1.76000E-002, 2.70000E+01, 5.00000E+00                                        
+ 7.08322E-010,7.08322E-010,3.88315E-010
+ 1.00000E+000,0.00000E+000,0.00000E+000
+ 1.00000E+000,0.00000E+000,0.00000E+000
+ 0.00000E+000,0.00000E+000,0.00000E+000
+ 0.00000E+000,0.00000E+000,0.00000E+000
+ 2.448,    1.530100e-04,    3.803900e-10,    0,    0.8
+ 0.8,    0.678315,    0.333107,    0,    0
*
* Gate Oxide Thickness is 175 Angstroms
*
*
*N+ diffusion:: 
*
.MODEL PC1_DU1 R
+ RSH=2.45 COX=0.000153 CAPSW=3.8e-10 W=0 DW=0
*
.ENDL fast

* Extreme endpoint of the fab distribution where IDS is smallest
.LIB slow
* ncondition slow
*PROCESS=hp	
*RUN=n27h
*WAFER=2
*Gate-oxide thickness= 169.0 angstroms 
*Geometries (W-drawn/L-drawn, units are um/um) of transistors measured were: 
* 1.5/1.0, 3.0/1.0, 9.0/1.0, 3.0/3.0, 3.0/9.0 
*Bias range to perform the extraction (Vdd)=5 volts 
*DATE=09-25-92
*
*NMOS PARAMETERS
*
.MODEL nmos NMOS LEVEL=13 VFB0=
+ -9.32490E-01,-6.20858E-03, 9.96330E-02
+  8.14445E-01, 0.00000E+00, 0.00000E+00
+  1.02370E+00, 6.52185E-02,-2.34998E-01
+  9.51202E-02, 8.79585E-02,-1.37831E-01
+ -3.82862E-03, 1.99792E-02,-1.47860E-02
+  5.33480E+02,4.36164E-001,5.70318E-001
+  1.01977E-01, 7.81003E-02,-8.74665E-02
+ -1.62940E-02, 1.31440E-01, 2.69310E-02
+  1.05593E+01,-5.18654E+00,-2.12902E+00
+ -1.53784E-03,-5.55334E-03, 4.82676E-03
+ -2.97762E-05,-1.97962E-03, 1.42331E-03
+  7.57815E-04,-1.63303E-03,-2.32035E-03
+  1.33987E-04, 5.18843E-03,-5.48826E-03
+  5.71211E+02, 7.33966E+01, 4.38080E+01
+  4.80067E+00, 9.41997E+00,-1.55267E+01
+ -2.26434E-02, 1.52687E+01, 4.72064E+00
+ -1.21964E-03, 9.80032E-03, 2.04794E-03
+ 1.69000E-002, 2.70000E+01, 5.00000E+00                                        
+ 6.68404E-010,6.68404E-010,4.46908E-010
+ 1.00000E+000,0.00000E+000,0.00000E+000
+ 1.00000E+000,0.00000E+000,0.00000E+000
+ 0.00000E+000,0.00000E+000,0.00000E+000
+ 0.00000E+000,0.00000E+000,0.00000E+000
+ 2.018,    1.427600e-04,    4.528500e-10,    0,    0.8
+ 0.8,    0.705173,    0.35144,    0,    0
*
* Gate Oxide Thickness is 168 Angstroms
*
*N+ diffusion:: 
*
.MODEL PC1_DU1 R
+ RSH=2.02 COX=0.000143 CAPSW=4.53e-10 W=0 DW=0
*
.ENDL slow

.LIB n36b
*PROCESS=hp	
*RUN=n36b
*WAFER=5
*Gate-oxide thickness= 171.0 angstroms 
*Geometries (W-drawn/L-drawn, units are um/um) of transistors measured were: 
* 1.5/1.0, 3.0/1.0, 9.0/1.0, 3.0/3.0, 3.0/9.0 
*Bias range to perform the extraction (Vdd)=5 volts 
*DATE=09-24-93
*
*NMOS PARAMETERS
*
.MODEL nmos NMOS LEVEL=13 VFB0=
+ -9.12002E-01,-5.39473E-03, 6.09120E-02
+  8.08802E-01, 0.00000E+00, 2.79215E-24
+  1.01624E+00, 1.86541E-02,-1.89919E-01
+  8.99881E-02, 7.78292E-02,-1.27246E-01
+ -2.71948E-03, 2.21339E-02,-1.99490E-02
+  5.38017E+02,4.49473E-001,4.88476E-001
+  1.04860E-01, 8.76040E-02,-8.32679E-02
+ -1.31613E-02, 1.04164E-01, 2.35410E-02
+  1.18175E+01,-5.68110E+00, 4.60474E+00
+ -1.02576E-03,-5.00166E-03, 2.67766E-03
+ -1.61224E-04,-1.25251E-05,-2.69187E-03
+  1.39341E-03,-1.67731E-03, 1.67756E-03
+ -3.01603E-04, 3.12376E-03,-8.63776E-05
+  5.77582E+02, 5.52407E+01, 3.17596E+01
+  4.90492E+00, 5.99439E+00, 1.47861E+00
+  1.13425E+00, 8.32027E+00, 7.00727E+00
+ -7.90702E-04, 5.87546E-03, 1.73918E-03
+ 1.71000E-002, 2.70000E+01, 5.00000E+00                                        
+ 6.80743E-010,6.80743E-010,4.14624E-010
+ 1.00000E+000,0.00000E+000,0.00000E+000
+ 1.00000E+000,0.00000E+000,0.00000E+000
+ 0.00000E+000,0.00000E+000,0.00000E+000
+ 0.00000E+000,0.00000E+000,0.00000E+000
+ 2.55,    1.135900e-04,    4.888500e-10,    1.000000e-08,    0.8
+ 0.8,    0.699232,    0.457832,    0,    0
*
* Gate Oxide Thickness is 171 Angstroms
*
*
.MODEL PC1_DU1 R
+ RSH=2.55 COX=0.000114 CAPSW=4.89e-10 W=0 DW=0
*
.ENDL n36b

.lib n33h
*
*PROCESS=hp	
*RUN=n33h
*WAFER=2
*Gate-oxide thickness= 176.0 angstroms 
*Geometries (W-drawn/L-drawn, units are um/um) of transistors measured were: 
* 1.5/1.0, 3.0/1.0, 9.0/1.0, 9.0/9.0, 9.0/12.5
*Bias range to perform the extraction (Vdd)=5 volts 
*DATE=06-24-93
*
*NMOS PARAMETERS
*
.MODEL nmos NMOS LEVEL=13 VFB0=
+ -8.98065E-01,-2.32158E-03, 2.32991E-01
+  7.80175E-01,-1.14441E-24, 0.00000E+00
+  1.12320E+00, 3.38649E-02,-5.45612E-01
+  1.15939E-01, 9.08119E-02,-2.40173E-01
+ -2.93867E-03, 2.69711E-02,-2.49863E-02
+  5.30348E+02,4.36559E-001,4.48428E-001
+  9.99777E-02, 9.95630E-02,-9.24404E-02
+ -1.16740E-02, 1.06923E-01, 8.70262E-03
+  1.17749E+01,-5.51595E+00,-1.35841E+00
+ -1.26027E-03,-4.68040E-03, 2.48574E-03
+ -7.11219E-05,-1.15543E-03, 2.62698E-04
+  2.06187E-03,-1.65120E-03,-3.43413E-03
+ -4.99707E-05, 3.05626E-03,-2.17747E-03
+  5.83151E+02, 6.59422E+01,-6.71005E+01
+  5.06897E+00, 7.29519E+00,-1.29053E+01
+  2.10200E+00, 1.30396E+01,-1.29011E+01
+  1.79996E-04, 7.60126E-03,-8.01767E-03
+ 1.76000E-002, 2.70000E+01, 5.00000E+00                                        
+ 6.42401E-010,6.42401E-010,3.97840E-010
+ 1.00000E+000,0.00000E+000,0.00000E+000
+ 1.00000E+000,0.00000E+000,0.00000E+000
+ 0.00000E+000,0.00000E+000,0.00000E+000
+ 0.00000E+000,0.00000E+000,0.00000E+000
+ 2.21,    9.132900e-05,    5.038300e-10,    1.000000e-08,    0.8
+ 0.8,    0.472758,    0.324269,    0,    0
*
* Gate Oxide Thickness is 175 Angstroms
*
*
*N+ diffusion:: 
*
.MODEL PC1_DU1 R
+ RSH=2.21 COX=9.13e-05 CAPSW=5.04e-10 W=0 DW=0
*
.endl n33h

.lib n39p
*PROCESS=hp	
*RUN=n39p
*WAFER=4
*Gate-oxide thickness= 175.0 angstroms 
*Geometries (W-drawn/L-drawn, units are um/um) of transistors measured were: 
* 1.5/1.0, 3.0/1.0, 9.0/1.0, 9.0/9.0, 9.0/12.5
*Bias range to perform the extraction (Vdd)=5 volts 
*DATE=12-01-91
*
*NMOS PARAMETERS
*
.MODEL nmos NMOS LEVEL=13 VFB0=
+ -8.96713E-01,-5.32859E-03,-5.08282E-02
+  8.26507E-01,-1.14465E-24, 3.02474E-24
+  9.28275E-01, 5.05340E-02, 1.82955E-02
+  6.84429E-02, 7.67463E-02,-6.42811E-02
+ -2.94104E-03, 1.43414E-02,-1.11383E-02
+  5.50320E+02,3.59741E-001,4.15861E-001
+  9.69811E-02, 7.34605E-02,-5.17561E-02
+ -1.45344E-02, 1.62106E-01,-1.28074E-02
+  8.80184E+00,-6.49289E+00, 1.38293E+01
+ -7.71804E-04,-6.04459E-03, 1.58411E-03
+ -5.76672E-06,-3.95733E-04,-2.79492E-03
+ -6.18531E-04,-2.42593E-03, 8.14383E-03
+ -9.84057E-04, 4.10152E-03, 4.96649E-03
+  5.81839E+02, 8.47874E+01, 4.39285E+01
+  1.69293E+00, 4.66019E+00, 2.56149E+01
+  4.02763E-01, 1.54341E+01, 1.89125E-02
+ -8.82292E-04, 1.16810E-02,-2.33949E-03
+ 1.75000E-002, 2.70000E+01, 5.00000E+00                                        
+ 5.32387E-010,5.32387E-010,3.85606E-010
+ 1.00000E+000,0.00000E+000,0.00000E+000
+ 1.00000E+000,0.00000E+000,0.00000E+000
+ 0.00000E+000,0.00000E+000,0.00000E+000
+ 0.00000E+000,0.00000E+000,0.00000E+000
+ 2.3,    2.402700e-04,    4.181400e-10,    1.000000e-08,    0.8
+ 0.8,    1.00953,    0.304242,    0,    0
*
* Gate Oxide Thickness is 175 Angstroms
*
*
*N+ diffusion:: 
*
.MODEL PC1_DU1 R
+ RSH=2.3 COX=0.00024 CAPSW=4.18e-10 W=0 DW=0
*
.endl n39p
