* HSPICE Library of MOS models for HP 0.8um
* Stefanos 3/93
*
* Library	Contents
* ------------------------------------------------------------------------
* typical	Centerline P
* fast		High IDS P
* slow		Low IDS P

* Midpoint of the fab distribution; centerline or "typical" process
.LIB typical
* pcondition typical
*PROCESS=hp	
*RUN=n31r
*WAFER=1
*Gate-oxide thickness= 221.0 angstroms 
*Geometries (W-drawn/L-drawn, units are um/um) of transistors measured were: 
* 1.5/1.0, 3.0/1.0, 9.0/1.0, 3.0/3.0, 3.0/9.0 
*Bias range to perform the extraction (Vdd)=5 volts 
*DATE=04-06-93
*
*PMOS PARAMETERS
*
.MODEL pmos PMOS LEVEL=13 VFB0=
+ -1.07810E-01,-3.49370E-02,-8.09539E-03
+  7.05025E-01, 0.00000E+00, 5.21341E-24
+  4.00229E-01, 1.64457E-02,-4.20110E-02
+ -5.01565E-02, 4.21649E-02,-3.65472E-02
+ -8.02217E-03, 3.21127E-02,-7.54142E-03
+  1.67442E+02,4.01419E-001,5.46970E-001
+  1.34833E-01, 7.44197E-02,-7.47075E-02
+ -4.36957E-03, 3.95336E-02, 3.75338E-03
+  7.95133E+00,-2.09996E+00,-1.01473E+00
+ -4.96532E-04,-1.39315E-03,-1.45414E-03
+  1.15558E-03,-1.37347E-03,-9.13543E-04
+  7.03072E-03,-7.61000E-04,-4.40029E-03
+ -3.23320E-04, 5.16606E-04, 2.29941E-03
+  1.70764E+02, 3.39701E+01,-4.00068E+00
+  6.96857E+00, 2.22267E-02,-9.01243E-02
+  5.17570E-01, 2.06799E+00,-8.45327E-01
+  4.53866E-04,-3.66162E-03,-7.63145E-04
+ 2.03000E-002, 2.70000E+01, 5.00000E+00                                        
+ 5.12127E-010,5.12127E-010,4.06859E-010
+ 1.00000E+000,0.00000E+000,0.00000E+000
+ 1.00000E+000,0.00000E+000,0.00000E+000
+ 0.00000E+000,0.00000E+000,0.00000E+000
+ 0.00000E+000,0.00000E+000,0.00000E+000
+ 2.68,    5.309300e-04,    7.875700e-11,    1.000000e-08,    0.85
+ 0.85,    0.507406,    7.719300e-02,    0,    0
*
*P+ diffusion:: 
*
.MODEL PC1_DU2 R
+ RSH=2.68 COX=0.000531 CAPSW=7.88e-11 W=0 DW=0
*
.ENDL typical

* Extreme endpoint of the fab distribution where IDS is largest
.LIB fast
* pcondition fast
*
*PROCESS=hp		
*RUN=n29z
*WAFER=2
*Gate-oxide thickness= 176.0 angstroms 
*Geometries (W-drawn/L-drawn, units are um/um) of transistors measured were: 
* 1.5/1.0, 3.0/1.0, 9.0/1.0, 3.0/3.0, 3.0/9.0 
*Bias range to perform the extraction (Vdd)=5 volts 
*DATE=02-11-93
*
*
*PMOS PARAMETERS
*
.MODEL pmos PMOS LEVEL=13 VFB0=
+ -3.13668E-01, 7.71734E-02,-8.49659E-02
+  7.46549E-01, 0.00000E+00, 0.00000E+00
+  4.90935E-01,-1.06839E-01, 1.39901E-01
+ -8.01381E-03, 4.93369E-03, 2.51322E-02
+ -1.17312E-02, 2.85411E-02,-1.52749E-03
+  1.78348E+02,3.17007E-001,4.86131E-001
+  1.57383E-01, 9.28071E-02,-9.12893E-02
+ -5.32992E-03, 4.19297E-02, 1.02423E-02
+  8.40017E+00,-2.31231E+00,-3.92977E-01
+ -1.73344E-03,-7.90961E-05,-3.56574E-04
+  9.49485E-04,-1.29339E-03,-7.37481E-04
+  7.58006E-03,-8.69999E-04,-2.05270E-03
+ -1.55610E-04, 6.62824E-04, 7.69415E-04
+  1.93009E+02, 3.63502E+01, 1.10325E+00
+  8.58552E+00,-8.36685E-01, 6.17576E-01
+  6.00906E-01, 2.70248E+00,-4.46530E-02
+  4.15907E-04,-3.64701E-03,-4.84883E-04
+ 1.76000E-002, 2.70000E+01, 5.00000E+00                                        
+ 4.66479E-010,4.66479E-010,3.92039E-010
+ 1.00000E+000,0.00000E+000,0.00000E+000
+ 1.00000E+000,0.00000E+000,0.00000E+000
+ 0.00000E+000,0.00000E+000,0.00000E+000
+ 0.00000E+000,0.00000E+000,0.00000E+000
+ 1.944,    5.775000e-04,    9.559400e-11,    0,    0.85
+ 0.85,    0.493244,    6.842700e-02,    0,    0
*
*P+ diffusion:: 
*
.MODEL PC1_DU2 R
+ RSH=1.94 COX=0.000577 CAPSW=9.56e-11 W=0 DW=0
*
.ENDL fast

* Extreme endpoint of the fab distribution where IDS is smallest
.LIB slow
*
* pcondition slow
*PROCESS=hp	
*RUN=n27h
*WAFER=2
*Gate-oxide thickness= 169.0 angstroms 
*Geometries (W-drawn/L-drawn, units are um/um) of transistors measured were: 
* 1.5/1.0, 3.0/1.0, 9.0/1.0, 3.0/3.0, 3.0/9.0 
*Bias range to perform the extraction (Vdd)=5 volts 
*DATE=09-25-92
*
*NMOS PARAMETERS
*
* Gate Oxide Thickness is 168 Angstroms
*
*PMOS PARAMETERS
*
.MODEL pmos PMOS LEVEL=13 VFB0=
+ -2.94483E-01, 4.88009E-02,-5.92792E-02
+  7.52204E-01,-2.28180E-24, 0.00000E+00
+  4.69316E-01,-6.96614E-02, 8.46545E-02
+ -1.38202E-02, 1.14345E-02,-1.02545E-03
+ -1.05064E-02, 2.47001E-02,-2.21772E-03
+  1.70727E+02,2.60739E-001,6.29419E-001
+  1.71258E-01, 2.13430E-01,-2.03906E-01
+ -4.07990E-03, 4.95738E-03, 3.00907E-02
+  8.66703E+00,-1.87990E+00,-1.47425E+00
+ -1.19069E-03, 1.73328E-06,-1.89241E-03
+  1.02274E-03,-1.55529E-03,-1.85715E-05
+  9.22103E-03, 4.32391E-03,-9.79181E-03
+ -2.31038E-04, 1.28905E-04, 1.82834E-03
+  1.85923E+02, 3.39059E+01,-6.32459E+00
+  8.89207E+00, 3.19379E-01,-1.42478E+00
+  7.81830E-01, 4.37691E+00,-3.72736E+00
+  5.97272E-04,-7.76716E-04,-4.36333E-03
+ 1.69000E-002, 2.70000E+01, 5.00000E+00                                        
+ 3.99572E-010,3.99572E-010,4.69796E-010
+ 1.00000E+000,0.00000E+000,0.00000E+000
+ 1.00000E+000,0.00000E+000,0.00000E+000
+ 0.00000E+000,0.00000E+000,0.00000E+000
+ 0.00000E+000,0.00000E+000,0.00000E+000
+ 1.672,    5.575300e-04,    7.108800e-11,    0,    0.85
+ 0.85,    0.456636,    1.337300e-02,    0,    0
*
*P+ diffusion:: 
*
.MODEL PC1_DU2 R
+ RSH=1.67 COX=0.000558 CAPSW=7.11e-11 W=0 DW=0
*
.ENDL slow

.LIB n36b
*PMOS PARAMETERS
*
.MODEL pmos PMOS LEVEL=13 VFB0=
+ -1.88549E-01, 3.20797E-02,-2.14651E-02
+  7.03757E-01, 0.00000E+00,-1.26351E-24
+  3.91463E-01,-5.81279E-02, 1.24320E-02
+ -2.52922E-02, 1.55580E-02,-1.95449E-02
+ -9.86266E-03, 2.83390E-02,-3.01031E-03
+  1.77160E+02,3.66614E-001,5.72286E-001
+  1.66099E-01, 1.15255E-01,-1.37865E-01
+ -5.57341E-03, 2.65692E-02, 2.48179E-02
+  8.81962E+00,-1.96580E+00,-5.45909E-01
+ -6.63023E-04,-4.68975E-04,-2.22691E-03
+  1.35294E-03,-1.25544E-03,-2.62885E-03
+  9.26411E-03, 7.00682E-04,-4.62320E-03
+ -3.23450E-04, 2.61931E-04, 2.50755E-03
+  1.87969E+02, 3.10113E+01,-5.86527E-01
+  8.49096E+00,-4.38300E-01, 1.00631E+00
+  3.19341E-01, 2.38977E+00, 9.43173E-01
+  3.48339E-04,-2.74299E-03,-6.48616E-04
+ 1.71000E-002, 2.70000E+01, 5.00000E+00                                        
+ 5.55250E-010,5.55250E-010,4.46980E-010
+ 1.00000E+000,0.00000E+000,0.00000E+000
+ 1.00000E+000,0.00000E+000,0.00000E+000
+ 0.00000E+000,0.00000E+000,0.00000E+000
+ 0.00000E+000,0.00000E+000,0.00000E+000
+ 1.93,    5.413200e-04,    8.533000e-11,    1.000000e-08,    0.85
+ 0.85,    0.490618,    5.605800e-02,    0,    0
*
*P+ diffusion:: 
*
.MODEL PC1_DU2 R
+ RSH=1.93 COX=0.000541 CAPSW=8.53e-11 W=0 DW=0
*
*METAL LAYER -- 1
*
.ENDL n36b

.lib n33h
* Gate Oxide Thickness is 175 Angstroms
*
*
*PMOS PARAMETERS
*
.MODEL pmos PMOS LEVEL=13 VFB0=
+ -6.21290E-02,-1.01904E-01, 1.72607E-01
+  6.76021E-01, 0.00000E+00, 5.93992E-25
+  3.35832E-01, 9.44903E-02,-2.13150E-01
+ -4.66882E-02, 5.92477E-02,-8.43584E-02
+ -7.52283E-03, 2.63772E-02,-6.76675E-04
+  1.73827E+02,3.43293E-001,6.20631E-001
+  1.56990E-01, 8.47349E-02,-9.68944E-02
+ -5.31496E-03, 4.20524E-02, 9.75889E-03
+  9.31437E+00,-2.63270E+00,-8.76207E-01
+ -2.19544E-04,-1.31821E-03,-1.52095E-03
+  9.72472E-04,-1.41609E-03,-1.59283E-03
+  1.07028E-02,-1.66142E-03,-4.22343E-03
+ -3.23052E-04, 6.05459E-04, 2.20626E-03
+  1.78917E+02, 3.94327E+01,-1.10887E+01
+  8.64683E+00,-2.77297E-02,-9.74006E-01
+  5.84031E-01, 2.84358E+00,-7.98376E-01
+  5.01842E-04,-3.07050E-03,-1.66583E-03
+ 1.76000E-002, 2.70000E+01, 5.00000E+00                                        
+ 5.05159E-010,5.05159E-010,4.63814E-010
+ 1.00000E+000,0.00000E+000,0.00000E+000
+ 1.00000E+000,0.00000E+000,0.00000E+000
+ 0.00000E+000,0.00000E+000,0.00000E+000
+ 0.00000E+000,0.00000E+000,0.00000E+000
+ 1.96,    5.596500e-04,    9.559000e-11,    0,    0.85
+ 0.85,    0.496293,    6.842700e-02,    0,    0
*
*P+ diffusion:: 
*
.MODEL PC1_DU2 R
+ RSH=1.96 COX=0.00056 CAPSW=9.56e-11 W=0 DW=0
*
.endl n33h

.lib n39p
*
*PMOS PARAMETERS
*
.MODEL pmos PMOS LEVEL=13 VFB0=
+ -2.02355E-01,-1.22519E-02, 1.54213E-01
+  7.02824E-01, 0.00000E+00, 0.00000E+00
+  4.50526E-01,-1.10738E-02,-1.67059E-01
+ -6.54286E-03, 2.63445E-02,-7.76604E-02
+ -5.61753E-03, 1.93547E-02, 7.02301E-04
+  1.70276E+02,2.34476E-001,3.91028E-001
+  1.45462E-01, 5.23524E-02,-5.91762E-02
+ -5.93518E-03, 7.86978E-02,-1.50202E-02
+  8.76063E+00,-2.74138E+00, 2.63794E-01
+  8.08196E-04,-2.12220E-03,-2.14385E-03
+  1.17677E-03,-1.31346E-03,-1.50779E-03
+  9.45886E-03,-2.78222E-03,-1.14276E-03
+ -5.52995E-04, 2.08639E-03, 3.00789E-03
+  1.79428E+02, 4.69435E+01,-2.16827E+01
+  8.09268E+00, 1.64006E-01, 1.10084E+00
+  4.54992E-01, 4.07502E+00,-2.10798E+00
+  5.04534E-04,-2.38728E-03,-2.33790E-03
+ 1.75000E-002, 2.70000E+01, 5.00000E+00                                        
+ 3.47005E-010,3.47005E-010,3.76077E-010
+ 1.00000E+000,0.00000E+000,0.00000E+000
+ 1.00000E+000,0.00000E+000,0.00000E+000
+ 0.00000E+000,0.00000E+000,0.00000E+000
+ 0.00000E+000,0.00000E+000,0.00000E+000
+ 2.04,    5.329600e-04,    1.960200e-10,    0,    0.85
+ 0.85,    0.5039,    0.220531,    0,    0
*
*N+ diffusion:: 
*
*P+ diffusion:: 
*
.MODEL PC1_DU2 R
+ RSH=2.04 COX=0.000533 CAPSW=1.96e-10 W=0 DW=0
*
.endl n39p
